#ifndef Unicode_HLSL
#define Unicode_HLSL

// [...]
#define UNICODE_SPACE                   0x0020
#define UNICODE_EXCLAMATION_MARK        0x0021 // !
#define UNICODE_QUOTATION_MARK          0x0022 // "
#define UNICODE_NUMBER_SIGN             0x0023 // #
#define UNICODE_DOLLAR_SIGN             0x0024 // $
#define UNICODE_PERCENT_SIGN            0x0025 // %
#define UNICODE_AMPERSAND               0x0026 // &
#define UNICODE_APOSTROPHE              0x0027 // '
#define UNICODE_LEFT_PARENTHESIS        0x0028 // (
#define UNICODE_RIGHT_PARENTHESIS       0x0029 // )
#define UNICODE_ASTERISK                0x002A // *
#define UNICODE_PLUS_SIGN               0x002B // +
#define UNICODE_COMMA                   0x002C // ,
#define UNICODE_HYPHEN_MINUS            0x002D // -
#define UNICODE_FULL_STOP               0x002E // .
#define UNICODE_SOLIDUS                 0x002F // /
#define UNICODE_DIGIT_ZERO              0x0030 // 0
#define UNICODE_DIGIT_ONE               0x0031 // 1
#define UNICODE_DIGIT_TWO               0x0032 // 2
#define UNICODE_DIGIT_THREE             0x0033 // 3
#define UNICODE_DIGIT_FOUR              0x0034 // 4
#define UNICODE_DIGIT_FIVE              0x0035 // 5
#define UNICODE_DIGIT_SIX               0x0036 // 6
#define UNICODE_DIGIT_SEVEN             0x0037 // 7
#define UNICODE_DIGIT_EIGHT             0x0038 // 8
#define UNICODE_DIGIT_NINE              0x0039 // 9
#define UNICODE_COLON                   0x003A // :
#define UNICODE_SEMICOLON               0x003B // ;
#define UNICODE_LESS_THAN_SIGN          0x003C // <
#define UNICODE_EQUALS_SIGN             0x003D // =
#define UNICODE_GREATER_THAN_SIGN       0x003E // >
#define UNICODE_QUESTION_MARK           0x003F // ?
#define UNICODE_COMMERCIAL_AT           0x0040 // @
#define UNICODE_LATIN_CAPITAL_LETTER_A  0x0041 // A
#define UNICODE_LATIN_CAPITAL_LETTER_B  0x0042 // B
#define UNICODE_LATIN_CAPITAL_LETTER_C  0x0043 // C
#define UNICODE_LATIN_CAPITAL_LETTER_D  0x0044 // D
#define UNICODE_LATIN_CAPITAL_LETTER_E  0x0045 // E
#define UNICODE_LATIN_CAPITAL_LETTER_F  0x0046 // F
#define UNICODE_LATIN_CAPITAL_LETTER_G  0x0047 // G
#define UNICODE_LATIN_CAPITAL_LETTER_H  0x0048 // H
#define UNICODE_LATIN_CAPITAL_LETTER_I  0x0049 // I
#define UNICODE_LATIN_CAPITAL_LETTER_J  0x004A // J
#define UNICODE_LATIN_CAPITAL_LETTER_K  0x004B // K
#define UNICODE_LATIN_CAPITAL_LETTER_L  0x004C // L
#define UNICODE_LATIN_CAPITAL_LETTER_M  0x004D // M
#define UNICODE_LATIN_CAPITAL_LETTER_N  0x004E // N
#define UNICODE_LATIN_CAPITAL_LETTER_O  0x004F // O
#define UNICODE_LATIN_CAPITAL_LETTER_P  0x0050 // P
#define UNICODE_LATIN_CAPITAL_LETTER_Q  0x0051 // Q
#define UNICODE_LATIN_CAPITAL_LETTER_R  0x0052 // R
#define UNICODE_LATIN_CAPITAL_LETTER_S  0x0053 // S
#define UNICODE_LATIN_CAPITAL_LETTER_T  0x0054 // T
#define UNICODE_LATIN_CAPITAL_LETTER_U  0x0055 // U
#define UNICODE_LATIN_CAPITAL_LETTER_V  0x0056 // V
#define UNICODE_LATIN_CAPITAL_LETTER_W  0x0057 // W
#define UNICODE_LATIN_CAPITAL_LETTER_X  0x0058 // X
#define UNICODE_LATIN_CAPITAL_LETTER_Y  0x0059 // Y
#define UNICODE_LATIN_CAPITAL_LETTER_Z  0x005A // Z
#define UNICODE_LEFT_SQUARE_BRACKET     0x005B // [
#define UNICODE_REVERSE_SOLIDUS         0x005C // (back slash)
#define UNICODE_RIGHT_SQUARE_BRACKET    0x005D // ]
#define UNICODE_CIRCUMFLEX_ACCENT       0x005E // ^
#define UNICODE_LOW_LINE                0x005F // _
#define UNICODE_GRAVE_ACCENT            0x0060 // `
#define UNICODE_LATIN_SMALL_LETTER_A    0x0061 // a
#define UNICODE_LATIN_SMALL_LETTER_B    0x0062 // b
#define UNICODE_LATIN_SMALL_LETTER_C    0x0063 // c
#define UNICODE_LATIN_SMALL_LETTER_D    0x0064 // d
#define UNICODE_LATIN_SMALL_LETTER_E    0x0065 // e
#define UNICODE_LATIN_SMALL_LETTER_F    0x0066 // f
#define UNICODE_LATIN_SMALL_LETTER_G    0x0067 // g
#define UNICODE_LATIN_SMALL_LETTER_H    0x0068 // h
#define UNICODE_LATIN_SMALL_LETTER_I    0x0069 // i
#define UNICODE_LATIN_SMALL_LETTER_J    0x006A // j
#define UNICODE_LATIN_SMALL_LETTER_K    0x006B // k
#define UNICODE_LATIN_SMALL_LETTER_L    0x006C // l
#define UNICODE_LATIN_SMALL_LETTER_M    0x006D // m
#define UNICODE_LATIN_SMALL_LETTER_N    0x006E // n
#define UNICODE_LATIN_SMALL_LETTER_O    0x006F // o
#define UNICODE_LATIN_SMALL_LETTER_P    0x0070 // p
#define UNICODE_LATIN_SMALL_LETTER_Q    0x0071 // q
#define UNICODE_LATIN_SMALL_LETTER_R    0x0072 // r
#define UNICODE_LATIN_SMALL_LETTER_S    0x0073 // s
#define UNICODE_LATIN_SMALL_LETTER_T    0x0074 // t
#define UNICODE_LATIN_SMALL_LETTER_U    0x0075 // u
#define UNICODE_LATIN_SMALL_LETTER_V    0x0076 // v
#define UNICODE_LATIN_SMALL_LETTER_W    0x0077 // w
#define UNICODE_LATIN_SMALL_LETTER_X    0x0078 // x
#define UNICODE_LATIN_SMALL_LETTER_Y    0x0079 // y
#define UNICODE_LATIN_SMALL_LETTER_Z    0x007A // z
#define UNICODE_LEFT_CURLY_BRACKET      0x007B // }
#define UNICODE_VERTICAL_LINE           0x007C // |
#define UNICODE_RIGHT_CURLY_BRACKET     0x007D // {
#define UNICODE_TILDE                   0x007E // ~
// [...]
#define UNICODE_DIAERESIS               0x00A8 // ¨
// [...]
#define UNICODE_ACUTE_ACCENT            0x00B4 // ´
#define UNICODE_MICRO_SIGN              0x00B5 // µ

#define UNICODE_MULTIPLICATION_SIGN     0x00D7 // ×
#endif
